 Abaqus/Standard 2024.HF1                  DATE 10-Jun-2026 TIME 11:13:00
 SUMMARY OF JOB INFORMATION:
 STEP  INC ATT SEVERE EQUIL TOTAL  TOTAL      STEP       INC OF       DOF    IF
               DISCON ITERS ITERS  TIME/    TIME/LPF    TIME/LPF    MONITOR RIKS
               ITERS               FREQ
   1     1   1U    6     0     6  0.00       0.00       0.01000   
   1     1   2     8     1     9  0.00250    0.00250    0.002500  
   1     2   1     0     1     1  0.00500    0.00500    0.002500  
   1     3   1     0     1     1  0.00875    0.00875    0.003750  
   1     4   1     0     1     1  0.0144     0.0144     0.005625  
   1     5   1     1     1     2  0.0228     0.0228     0.008438  
   1     6   1     0     1     1  0.0355     0.0355     0.01266   
   1     7   1     1     1     2  0.0545     0.0545     0.01898   
   1     8   1     1     1     2  0.0829     0.0829     0.02848   
   1     9   1     0     1     1  0.126      0.126      0.04271   
   1    10   1     0     1     1  0.190      0.190      0.06407   
   1    11   1     1     1     2  0.286      0.286      0.09611   
   1    12   1     0     1     1  0.430      0.430      0.1442    
   1    13   1     0     1     1  0.646      0.646      0.2162    
   1    14   1     0     1     1  1.00       1.00       0.3538    
                          
 THE ANALYSIS HAS COMPLETED SUCCESSFULLY
