 Abaqus/Standard 2024.HF1                  DATE 12-Jun-2026 TIME 09:31:38
 SUMMARY OF JOB INFORMATION:
 STEP  INC ATT SEVERE EQUIL TOTAL  TOTAL      STEP       INC OF       DOF    IF
               DISCON ITERS ITERS  TIME/    TIME/LPF    TIME/LPF    MONITOR RIKS
               ITERS               FREQ
   1     1   1     7     3    10  0.0100     0.0100     0.01000   
   1     2   1     8     6    14  0.0200     0.0200     0.01000   
   1     3   1     8     5    13  0.0300     0.0300     0.01000   
   1     4   1     3     4     7  0.0400     0.0400     0.01000   
   1     5   1     2     3     5  0.0500     0.0500     0.01000   
   1     6   1     0     4     4  0.0650     0.0650     0.01500   
   1     7   1     0     4     4  0.0875     0.0875     0.02250   
   1     8   1     0     4     4  0.121      0.121      0.03375   
   1     9   1     0     3     3  0.172      0.172      0.05063   
   1    10   1     1     3     4  0.248      0.248      0.07594   
   1    11   1     0     6     6  0.362      0.362      0.1139    
   1    12   1     0     6     6  0.476      0.476      0.1139    
   1    13   1     0     5     5  0.590      0.590      0.1139    
   1    14   1     0     5     5  0.703      0.703      0.1139    
   1    15   1U    6     0     6  0.703      0.703      0.1139    
   1    15   2     2     1     3  0.732      0.732      0.02848   
   1    16   1U    4     0     4  0.732      0.732      0.02848   
   1    16   2U    4     0     4  0.732      0.732      0.007119  
   1    16   3     4     3     7  0.734      0.734      0.001780  
   1    17   1     0     2     2  0.736      0.736      0.002670  
   1    18   1     0     1     1  0.740      0.740      0.004005  
   1    19   1     0     1     1  0.746      0.746      0.006007  
   1    20   1     0     1     1  0.755      0.755      0.009010  
   1    21   1     0     1     1  0.769      0.769      0.01352   
   1    22   1     0     1     1  0.789      0.789      0.02027   
   1    23   1     0     2     2  0.820      0.820      0.03041   
   1    24   1     1     1     2  0.865      0.865      0.04561   
   1    25   1     1     2     3  0.934      0.934      0.06842   
   1    26   1     1     2     3  1.00       1.00       0.06638   
   2     1   1     1     1     2  1.01       0.0100     0.01000   
   2     2   1     0     1     1  1.02       0.0200     0.01000   
   2     3   1     0     1     1  1.03       0.0350     0.01500   
   2     4   1     0     1     1  1.06       0.0575     0.02250   
   2     5   1     0     1     1  1.09       0.0912     0.03375   
   2     6   1     0     1     1  1.14       0.142      0.05063   
   2     7   1     1     0     1  1.22       0.218      0.07594   
   2     8   1     1     0     1  1.33       0.332      0.1139    
   2     9   1     5     0     5  1.50       0.503      0.1709    
   2    10   1     1     1     2  1.76       0.759      0.2563    
   2    11   1     3     0     3  2.00       1.00       0.2411    
                          
 THE ANALYSIS HAS COMPLETED SUCCESSFULLY
